Version 4
SHEET 1 1804 680
WIRE 272 -656 272 -704
WIRE 480 -640 528 -704
WIRE 688 -640 608 -704
WIRE 1088 -576 1040 -576
WIRE 1248 -576 1248 -592
WIRE 1248 -576 1088 -576
WIRE 272 -528 272 -576
WIRE 448 -528 272 -528
WIRE 560 -528 560 -560
WIRE 448 -512 448 -528
WIRE 528 -512 448 -512
WIRE 688 -496 688 -640
WIRE 688 -496 592 -496
WIRE 736 -496 688 -496
WIRE 912 -496 816 -496
WIRE 1040 -496 1040 -576
WIRE 1040 -496 912 -496
WIRE 480 -480 480 -640
WIRE 528 -480 480 -480
WIRE 320 -464 320 -480
WIRE 352 -464 320 -464
WIRE 480 -464 480 -480
WIRE 480 -464 432 -464
WIRE 912 -448 912 -496
WIRE 320 -432 320 -464
WIRE 272 -416 272 -528
WIRE 272 -288 272 -336
WIRE 560 -288 560 -464
WIRE 688 -288 560 -288
WIRE 752 -288 688 -288
WIRE 912 -288 912 -368
WIRE 912 -288 752 -288
WIRE 1248 -288 912 -288
WIRE 752 -272 752 -288
WIRE 272 -160 272 -208
WIRE 688 -160 688 -288
WIRE 688 -160 272 -160
WIRE 304 -96 -96 -96
WIRE 496 -96 304 -96
WIRE 576 -96 496 -96
WIRE 640 -96 576 -96
WIRE 960 -96 640 -96
WIRE 640 -64 640 -96
WIRE -96 -16 -96 -96
WIRE 576 0 576 -96
WIRE 1088 16 864 16
WIRE 640 48 640 0
WIRE 720 48 640 48
WIRE 832 48 800 48
WIRE 496 64 496 -96
WIRE 640 64 640 48
WIRE 960 80 960 -96
WIRE 832 96 832 48
WIRE 864 96 832 96
WIRE 928 96 864 96
WIRE 1088 112 1088 16
WIRE 1088 112 992 112
WIRE 1152 112 1088 112
WIRE 864 128 832 128
WIRE 928 128 864 128
WIRE 640 176 640 144
WIRE 720 176 640 176
WIRE 832 176 832 128
WIRE 832 176 800 176
WIRE 576 192 576 64
WIRE 640 192 640 176
WIRE 640 192 576 192
WIRE -608 208 -752 208
WIRE 640 208 640 192
WIRE 1264 208 864 208
WIRE 1344 208 1264 208
WIRE -96 240 -96 64
WIRE -96 240 -112 240
WIRE 1152 272 1152 112
WIRE -752 304 -752 288
WIRE -544 304 -752 304
WIRE 496 304 496 128
WIRE 640 304 640 288
WIRE 640 304 496 304
WIRE -752 320 -752 304
WIRE 96 320 -16 320
WIRE 640 336 640 304
WIRE -16 384 -16 320
WIRE 528 416 496 416
WIRE 592 416 528 416
WIRE -752 544 -752 400
WIRE -112 544 -112 240
WIRE -112 544 -752 544
WIRE -16 544 -16 464
WIRE -16 544 -112 544
WIRE 512 544 512 512
WIRE 512 544 -16 544
WIRE 640 544 640 432
WIRE 640 544 512 544
WIRE 960 544 960 144
WIRE 960 544 640 544
WIRE 1152 544 1152 352
WIRE 1152 544 960 544
WIRE 1456 544 1152 544
FLAG -112 544 0
FLAG 304 -96 Vcc
FLAG 752 -272 0
FLAG 320 -464 Current
FLAG 1152 112 Current
FLAG 1088 -576 Transistor
FLAG 528 416 Transistor
FLAG -544 304 Transistor2
FLAG 96 320 5Volt
FLAG 1264 208 5Volt
FLAG 560 -560 5Volt
FLAG 272 -704 5Volt
FLAG -608 208 5Volt
SYMBOL LED 624 -64 R0
SYMATTR InstName D1
SYMATTR Value LXK2-PW14
SYMBOL ind 624 192 R0
SYMATTR InstName L1
SYMATTR Value 100µ
SYMATTR SpiceLine Ipk=1.25 Rser=0.165 Rpar=9425 Cpar=0 mfg="Coilcraft" pn="MSS1260-104MX"
SYMBOL voltage -96 -32 R0
WINDOW 123 0 0 Left 0
WINDOW 39 24 132 Left 0
SYMATTR SpiceLine Rser=0.1 Cpar=10u
SYMATTR InstName V1
SYMATTR Value 17
SYMBOL res 624 48 R0
SYMATTR InstName R1
SYMATTR Value 0.1
SYMBOL nmos 592 336 R0
SYMATTR InstName M1
SYMATTR Value Si5902DC
SYMBOL schottky 512 128 R180
WINDOW 0 24 72 Left 0
WINDOW 3 24 0 Left 0
SYMATTR InstName D2
SYMATTR Value B530C
SYMATTR Description Diode
SYMATTR Type diode
SYMBOL voltage -16 368 R0
WINDOW 123 0 0 Left 0
WINDOW 39 24 132 Left 0
SYMATTR SpiceLine Rser=0 Cpar=10u
SYMATTR InstName V2
SYMATTR Value 5
SYMBOL res -768 192 R0
SYMATTR InstName R2
SYMATTR Value 1k
SYMBOL voltage -752 304 R0
WINDOW 123 0 0 Left 0
WINDOW 39 24 132 Left 0
SYMATTR SpiceLine Rser=0 Cpar=10u
SYMATTR InstName V3
SYMATTR Value PULSE(0 5 35u 2n 2n 3u 8u 20)
SYMBOL Opamps\\LT1813 960 48 R0
SYMATTR InstName U1
SYMBOL res 848 0 R0
SYMATTR InstName R3
SYMATTR Value 250k
SYMBOL res 848 112 R0
SYMATTR InstName R4
SYMATTR Value 250k
SYMBOL res 816 160 R90
WINDOW 0 0 56 VBottom 0
WINDOW 3 32 56 VTop 0
SYMATTR InstName R5
SYMATTR Value 5k
SYMBOL res 816 32 R90
WINDOW 0 0 56 VBottom 0
WINDOW 3 32 56 VTop 0
SYMATTR InstName R6
SYMATTR Value 5k
SYMBOL res 1136 256 R0
SYMATTR InstName R7
SYMATTR Value 10k
SYMBOL Opamps\\LT1813 560 -560 R0
SYMATTR InstName U2
SYMBOL res 256 -432 R0
SYMATTR InstName R10
SYMATTR Value 2k
SYMBOL res 448 -480 R90
WINDOW 0 0 56 VBottom 0
WINDOW 3 32 56 VTop 0
SYMATTR InstName R11
SYMATTR Value 1k
SYMBOL res 624 -720 R90
WINDOW 0 0 56 VBottom 0
WINDOW 3 32 56 VTop 0
SYMATTR InstName R12
SYMATTR Value 40k
SYMBOL res 832 -512 R90
WINDOW 0 0 56 VBottom 0
WINDOW 3 32 56 VTop 0
SYMATTR InstName R13
SYMATTR Value 10
SYMBOL res 256 -672 R0
SYMATTR InstName R14
SYMATTR Value 2k
SYMBOL res 896 -464 R0
SYMATTR InstName R8
SYMATTR Value 10k
SYMBOL voltage 272 -304 R0
WINDOW 123 0 0 Left 0
WINDOW 39 24 132 Left 0
SYMATTR SpiceLine Rser=0 Cpar=10u
SYMATTR InstName V4
SYMATTR Value PULSE(0 5 30u 2n 2n 60u 100u 20)
SYMBOL cap 560 0 R0
SYMATTR InstName C1
SYMATTR Value 500n
SYMATTR SpiceLine V=10 Irms=10.541 Rser=0.004 Lser=0
TEXT -128 600 Left 0 !.tran 400u startup
TEXT -144 -248 Left 0 ;Detta är PWM-utgången på AVRen
TEXT 664 -128 Left 0 ;Frekvensen på switchningarna justeras med C1, ett för stort värde på C1 ger dock översväng...
TEXT -16 272 Left 0 ;V2 är 5 volt från corecard
TEXT -784 112 Left 0 ;Används för att styra utan\nregulator, ska alltså ej vara\nmed på expansionen
