Version 4
SHEET 1 1792 680
WIRE 1248 -672 1248 -720
WIRE 272 -656 272 -704
WIRE 528 -640 480 -640
WIRE 688 -640 608 -640
WIRE 1088 -576 1040 -576
WIRE 1248 -576 1248 -592
WIRE 1248 -576 1088 -576
WIRE 608 -560 560 -560
WIRE 624 -560 608 -560
WIRE 272 -528 272 -576
WIRE 448 -528 272 -528
WIRE 560 -528 560 -560
WIRE 448 -512 448 -528
WIRE 528 -512 448 -512
WIRE 688 -496 688 -640
WIRE 688 -496 592 -496
WIRE 736 -496 688 -496
WIRE 928 -496 816 -496
WIRE 992 -496 928 -496
WIRE 480 -480 480 -640
WIRE 528 -480 480 -480
WIRE 1248 -480 1248 -576
WIRE 320 -464 320 -480
WIRE 352 -464 320 -464
WIRE 480 -464 480 -480
WIRE 480 -464 432 -464
WIRE 320 -432 320 -464
WIRE 928 -432 928 -496
WIRE 272 -416 272 -528
WIRE 272 -288 272 -336
WIRE 560 -288 560 -464
WIRE 560 -288 272 -288
WIRE 752 -288 560 -288
WIRE 928 -288 928 -368
WIRE 928 -288 752 -288
WIRE 1040 -288 1040 -480
WIRE 1040 -288 928 -288
WIRE 1248 -288 1248 -416
WIRE 1248 -288 1040 -288
WIRE 752 -272 752 -288
WIRE 304 -96 -96 -96
WIRE 496 -96 304 -96
WIRE 640 -96 496 -96
WIRE 960 -96 640 -96
WIRE 1344 -96 960 -96
WIRE 640 -64 640 -96
WIRE -96 -16 -96 -96
WIRE 1344 -16 1344 -96
WIRE 1088 16 864 16
WIRE 640 48 640 0
WIRE 688 48 640 48
WIRE 832 48 800 48
WIRE 496 64 496 -96
WIRE 640 64 640 48
WIRE 960 80 960 -96
WIRE 832 96 832 48
WIRE 864 96 832 96
WIRE 928 96 864 96
WIRE 1088 112 1088 16
WIRE 1088 112 992 112
WIRE 1152 112 1088 112
WIRE 864 128 832 128
WIRE 928 128 864 128
WIRE 720 144 720 48
WIRE 720 144 640 144
WIRE 688 176 688 48
WIRE 720 176 688 176
WIRE 832 176 832 128
WIRE 832 176 800 176
WIRE 640 208 640 144
WIRE 1344 208 1344 64
WIRE 1344 208 864 208
WIRE -96 240 -96 64
WIRE -96 240 -112 240
WIRE 1344 256 1344 208
WIRE 1152 272 1152 112
WIRE 496 304 496 128
WIRE 640 304 640 288
WIRE 640 304 496 304
WIRE 400 320 400 304
WIRE 400 320 -16 320
WIRE 400 336 400 320
WIRE 640 336 640 304
WIRE -16 384 -16 320
WIRE 464 416 400 416
WIRE 528 416 496 416
WIRE 592 416 528 416
WIRE 320 448 256 448
WIRE 464 448 464 416
WIRE 464 448 320 448
WIRE 256 464 256 448
WIRE -112 544 -112 240
WIRE -16 544 -16 464
WIRE -16 544 -112 544
WIRE 256 544 -16 544
WIRE 464 544 464 496
WIRE 464 544 256 544
WIRE 512 544 512 512
WIRE 512 544 464 544
WIRE 640 544 640 432
WIRE 640 544 512 544
WIRE 960 544 960 144
WIRE 960 544 640 544
WIRE 1152 544 1152 352
WIRE 1152 544 960 544
WIRE 1344 544 1344 336
WIRE 1344 544 1152 544
WIRE 1456 544 1344 544
FLAG -112 544 0
FLAG 304 -96 Vcc
FLAG 608 -560 Vcc
FLAG 752 -272 0
FLAG 272 -704 Vcc
FLAG 320 -464 Current
FLAG 1152 112 Current
FLAG 1088 -576 Transistor
FLAG 1248 -720 Vcc
FLAG 528 416 Transistor
FLAG 320 448 Transistor2
SYMBOL LED 624 -64 R0
SYMATTR InstName D1
SYMATTR Value LXK2-PW14
SYMBOL ind 624 192 R0
SYMATTR InstName L1
SYMATTR Value 100µ
SYMATTR SpiceLine Ipk=1.25 Rser=0.165 Rpar=9425 Cpar=0 mfg="Coilcraft" pn="MSS1260-104MX"
SYMBOL voltage -96 -32 R0
WINDOW 123 0 0 Left 0
WINDOW 39 24 132 Left 0
SYMATTR InstName V1
SYMATTR Value 12
SYMATTR SpiceLine Rser=0.1 Cpar=10u
SYMBOL res 624 48 R0
SYMATTR InstName R1
SYMATTR Value 0.1
SYMBOL nmos 592 336 R0
SYMATTR InstName M1
SYMATTR Value IRF530
SYMBOL schottky 512 128 R180
WINDOW 0 24 72 Left 0
WINDOW 3 24 0 Left 0
SYMATTR InstName D2
SYMATTR Value B530C
SYMATTR Description Diode
SYMATTR Type diode
SYMBOL voltage -16 368 R0
WINDOW 123 0 0 Left 0
WINDOW 39 24 132 Left 0
SYMATTR InstName V2
SYMATTR Value 5
SYMATTR SpiceLine Rser=0 Cpar=10u
SYMBOL res 384 320 R0
SYMATTR InstName R2
SYMATTR Value 1k
SYMBOL voltage 256 448 R0
WINDOW 123 0 0 Left 0
WINDOW 39 24 132 Left 0
SYMATTR InstName V3
SYMATTR Value PULSE(0 5 100n 2n 2n 3u 8u 20)
SYMATTR SpiceLine Rser=0 Cpar=10u
SYMBOL Opamps\\LT1813 960 48 R0
SYMATTR InstName U1
SYMBOL res 848 0 R0
SYMATTR InstName R3
SYMATTR Value 150k
SYMBOL res 848 112 R0
SYMATTR InstName R4
SYMATTR Value 150k
SYMBOL res 816 160 R90
WINDOW 0 0 56 VBottom 0
WINDOW 3 32 56 VTop 0
SYMATTR InstName R5
SYMATTR Value 5k
SYMBOL res 816 32 R90
WINDOW 0 0 56 VBottom 0
WINDOW 3 32 56 VTop 0
SYMATTR InstName R6
SYMATTR Value 5k
SYMBOL res 1136 256 R0
SYMATTR InstName R7
SYMATTR Value 10k
SYMBOL res 1328 -32 R0
SYMATTR InstName R8
SYMATTR Value 50
SYMBOL res 1328 240 R0
SYMATTR InstName R9
SYMATTR Value 50
SYMBOL Opamps\\LT1813 560 -560 R0
SYMATTR InstName U2
SYMBOL res 256 -432 R0
SYMATTR InstName R10
SYMATTR Value 6.5k
SYMBOL res 448 -480 R90
WINDOW 0 0 56 VBottom 0
WINDOW 3 32 56 VTop 0
SYMATTR InstName R11
SYMATTR Value 1k
SYMBOL res 624 -656 R90
WINDOW 0 0 56 VBottom 0
WINDOW 3 32 56 VTop 0
SYMATTR InstName R12
SYMATTR Value 40k
SYMBOL res 832 -512 R90
WINDOW 0 0 56 VBottom 0
WINDOW 3 32 56 VTop 0
SYMATTR InstName R13
SYMATTR Value 10
SYMBOL zener 944 -368 R180
WINDOW 0 24 72 Left 0
WINDOW 3 24 0 Left 0
SYMATTR InstName D3
SYMATTR Value 1N750
SYMATTR Description Diode
SYMATTR Type diode
SYMBOL res 256 -672 R0
SYMATTR InstName R14
SYMATTR Value 5.5k
SYMBOL nmos 992 -576 R0
SYMATTR InstName M2
SYMATTR Value IRF530
SYMBOL zener 1264 -416 R180
WINDOW 0 24 72 Left 0
WINDOW 3 24 0 Left 0
SYMATTR InstName D4
SYMATTR Value 1N750
SYMATTR Description Diode
SYMATTR Type diode
SYMBOL res 1264 -576 R180
WINDOW 0 36 76 Left 0
WINDOW 3 36 40 Left 0
SYMATTR InstName R15
SYMATTR Value 1k
TEXT -130 600 Left 0 !.tran 100u startup
